@<TRIPOS>MOLECULE
*****
 8 7 0 0 0
SMALL
GASTEIGER

@<TRIPOS>ATOM
    1 SI    5.5376      4.5543      4.8506    Si     1    UNL1    0.0000
    2 C     5.1022      5.6022      4.9355    C.3    1    UNL1    0.0000
    3 O     6.6642      4.5543      4.8506    O.3    1    UNL1    0.0000
    4 H     5.1638      4.0795      4.0326    H      1    UNL1    0.0000
    5 H     5.2617      4.0000      5.6520    H      1    UNL1    0.0000
    6 H     5.3465      6.2225      4.0545    H      1    UNL1    0.0000
    7 H     5.4812      6.1312      5.8289    H      1    UNL1    0.0000
    8 H     4.0000      5.5750      5.0160    H      1    UNL1    0.0000
@<TRIPOS>BOND
    1    1    2    1
    2    1    3    1
    3    1    4    1
    4    1    5    1
    5    2    6    1
    6    2    7    1
    7    2    8    1
