@<TRIPOS>MOLECULE
*****
 8 7 0 0 0
SMALL
GASTEIGER

@<TRIPOS>ATOM
    1 SI    5.5376      4.5543      4.8506    Si     1    UNL1    0.0000
    2 C     5.1022      3.5064      4.7657    C.3    1    UNL1    0.0000
    3 O     6.6642      4.5543      4.8506    O.3    1    UNL1    0.0000
    4 H     5.2617      5.1086      4.0492    H      1    UNL1    0.0000
    5 H     5.3465      2.8861      5.6467    H      1    UNL1    0.0000
    6 H     5.4812      2.9774      3.8723    H      1    UNL1    0.0000
    7 H     4.0000      3.5336      4.6852    H      1    UNL1    0.0000
    8 H     7.0901      4.4656      5.7012    H      1    UNL1    0.0000
@<TRIPOS>BOND
    1    1    2    1
    2    1    3    1
    3    1    4    1
    4    2    5    1
    5    2    6    1
    6    2    7    1
    7    3    8    1
